Info: SIMULATION PARAMETERS:
Info: TIMESTEP               2
Info: NUMBER OF STEPS        0
Info: STEPS PER CYCLE        10
Info: PERIODIC CELL BASIS 1  50 0 0
Info: PERIODIC CELL BASIS 2  0 50 0
Info: PERIODIC CELL BASIS 3  0 0 50
Info: PERIODIC CELL CENTER   0 0 0
Info: WRAPPING WATERS AROUND PERIODIC BOUNDARIES ON OUTPUT.
Info: WRAPPING ALL CLUSTERS AROUND PERIODIC BOUNDARIES ON OUTPUT.
Info: FIRST LDB TIMESTEP     50
Info: LAST LDB TIMESTEP     -1
Info: HOM BACKGROUND SCALING 1
Info: PME BACKGROUND SCALING 1
Info: MIN ATOMS PER PATCH    40
Info: INITIAL TEMPERATURE    1500
Info: CENTER OF MASS MOVING INITIALLY? NO
Info: REMOVING CENTER OF MASS DRIFT DURING SIMULATION
Info: DIELECTRIC             1
Info: EXCLUDE                SCALED ONE-FOUR
Info: 1-4 ELECTROSTATICS SCALED BY 1
Info: MODIFIED 1-4 VDW PARAMETERS WILL BE USED
Info: DCD FILENAME           MD1500K.dcd
Info: DCD FREQUENCY          500
Info: DCD FIRST STEP         500
Info: DCD FILE WILL CONTAIN UNIT CELL DATA
Info: XST FILENAME           MD1500K.xst
Info: XST FREQUENCY          500
Info: NO VELOCITY DCD OUTPUT
Info: NO FORCE DCD OUTPUT
Info: OUTPUT FILENAME        MD1500K
Info: BINARY OUTPUT FILES WILL BE USED
Info: RESTART FILENAME       MD1500K.restart
Info: RESTART FREQUENCY      5000
Info: BINARY RESTART FILES WILL BE USED
Info: SWITCHING ACTIVE
Info: SWITCHING ON           10
Info: SWITCHING OFF          12
Info: PAIRLIST DISTANCE      14
Info: PAIRLIST SHRINK RATE   0.01
Info: PAIRLIST GROW RATE     0.01
Info: PAIRLIST TRIGGER       0.3
Info: PAIRLISTS PER CYCLE    2
Info: PAIRLISTS ENABLED
Info: MARGIN                 0
Info: HYDROGEN GROUP CUTOFF  2.5
Info: PATCH DIMENSION        16.5
Info: ENERGY OUTPUT STEPS    500
Info: CROSSTERM ENERGY INCLUDED IN DIHEDRAL
Info: TIMING OUTPUT STEPS    5000
Info: PRESSURE OUTPUT STEPS  500
Info: LANGEVIN DYNAMICS ACTIVE
Info: LANGEVIN TEMPERATURE   1500
Info: LANGEVIN USING BBK INTEGRATOR
Info: LANGEVIN DAMPING COEFFICIENT IS 1 INVERSE PS
Info: LANGEVIN DYNAMICS NOT APPLIED TO HYDROGENS
Info: PARTICLE MESH EWALD (PME) ACTIVE
Info: PME TOLERANCE               1e-06
Info: PME EWALD COEFFICIENT       0.257952
Info: PME INTERPOLATION ORDER     4
Info: PME GRID DIMENSIONS         54 54 54
Info: PME MAXIMUM GRID SPACING    1
Info: FULL ELECTROSTATIC EVALUATION FREQUENCY      2
Info: USING VERLET I (r-RESPA) MTS SCHEME.
Info: C1 SPLITTING OF LONG RANGE ELECTROSTATICS
Info: PLACING ATOMS IN PATCHES BY HYDROGEN GROUPS
Info: RIGID BONDS TO HYDROGEN : ALL
Info:         ERROR TOLERANCE : 1e-08
Info:          MAX ITERATIONS : 100
Info: RIGID WATER USING SETTLE ALGORITHM
Info: RANDOM NUMBER SEED     1714124673
Info: USE HYDROGEN BONDS?    NO
Info: COORDINATE PDB         ../input/initial_positions.pdb
Info: STRUCTURE FILE         ../input/Au.psf
Info: PARAMETER file: CHARMM format!
Info: PARAMETERS             ../input/FF_gold.inp
Info: USING ARITHMETIC MEAN TO COMBINE L-J SIGMA PARAMETERS
Info: SUMMARY OF PARAMETERS:
Info: 0 BONDS
Info: 0 ANGLES
Info: 0 DIHEDRAL
Info: 0 IMPROPER
Info: 0 CROSSTERM
Info: 1 VDW
Info: 0 VDW_PAIRS
Info: 0 NBTHOLE_PAIRS
Info: STRUCTURE SUMMARY:
Info: 864 ATOMS
Info: 0 BONDS
Info: 0 ANGLES
Info: 0 DIHEDRALS
Info: 0 IMPROPERS
Info: 0 CROSSTERMS
Info: 0 EXCLUSIONS
Info: 0 RIGID BONDS
Info: 2592 DEGREES OF FREEDOM
Info: 864 HYDROGEN GROUPS
Info: 1 ATOMS IN LARGEST HYDROGEN GROUP
Info: 864 MIGRATION GROUPS
Info: 1 ATOMS IN LARGEST MIGRATION GROUP
Info: TOTAL MASS = 170179 amu
Info: TOTAL CHARGE = 0 e
Info: MASS DENSITY = 2.26077 g/cm^3
Info: ATOM DENSITY = 0.006912 atoms/A^3
Info: ADDED 0 IMPLICIT EXCLUSIONS
Info: NONBONDED TABLE R-SQUARED SPACING: 0.0625
Info: NONBONDED TABLE SIZE: 769 POINTS
Info: REMOVING COM VELOCITY 0.0697332 -0.041068 -0.0761368
Info: Updated CUDA force table with 4096 elements.
Info: Updated CUDA LJ table with 1 x 1 elements.
Info: Found 1 unique exclusion lists needing 4 bytes
TCL: Minimizing for 5000 steps
ETITLE: TS BOND ANGLE DIHED IMPRP ELECT VDW BOUNDARY MISC KINETIC TOTAL TEMP POTENTIAL TOTAL3 TEMPAVG PRESSURE GPRESSURE VOLUME PRESSAVG GPRESSAVG
ENERGY: 0 0.0000 0.0000 0.0000 0.0000 0.0000 -31150.7773 0.0000 0.0000 0.0000 -31150.7773 0.0000 -31150.7773 -31150.7773 0.0000 0.0000 0.0000 125000.0000 0.0000 0.0000
ENERGY: 1000 0.0000 0.0000 0.0000 0.0000 0.0000 -31150.7921 0.0000 0.0000 0.0000 -31150.7921 0.0000 -31150.7921 -31150.7921 0.0000 0.0000 0.0000 125000.0000 0.0000 0.0000
ENERGY: 2000 0.0000 0.0000 0.0000 0.0000 0.0000 -31150.7921 0.0000 0.0000 0.0000 -31150.7921 0.0000 -31150.7921 -31150.7921 0.0000 0.0000 -0.0000 125000.0000 0.0000 -0.0000
ENERGY: 3000 0.0000 0.0000 0.0000 0.0000 0.0000 -31150.7921 0.0000 0.0000 0.0000 -31150.7921 0.0000 -31150.7921 -31150.7921 0.0000 0.0000 -0.0000 125000.0000 0.0000 -0.0000
ENERGY: 4000 0.0000 0.0000 0.0000 0.0000 0.0000 -31150.7921 0.0000 0.0000 0.0000 -31150.7921 0.0000 -31150.7921 -31150.7921 0.0000 0.0000 0.0000 125000.0000 0.0000 0.0000
ENERGY: 5000 0.0000 0.0000 0.0000 0.0000 0.0000 -31150.8070 0.0000 0.0000 0.0000 -31150.8070 0.0000 -31150.8070 -31150.8070 0.0000 0.0000 0.0000 125000.0000 0.0000 0.0000
TCL: Running for 500000 steps
ETITLE: TS BOND ANGLE DIHED IMPRP ELECT VDW BOUNDARY MISC KINETIC TOTAL TEMP POTENTIAL TOTAL3 TEMPAVG PRESSURE GPRESSURE VOLUME PRESSAVG GPRESSAVG
ENERGY: 5000 0.0000 0.0000 0.0000 0.0000 0.0000 -31150.8070 0.0000 0.0000 0.0000 -31150.8070 0.0000 -31150.8070 -31150.8070 0.0000 -0.0219 -0.0219 125000.0000 -0.0219 -0.0219
ENERGY: 105000 0.0000 0.0000 0.0000 0.0000 0.0000 -23107.0569 0.0000 0.0000 3753.3443 -19353.7126 1457.3833 -23107.0569 -19354.2094 1480.4526 438.5448 438.5448 125000.0000 -210.9192 -210.9192
ENERGY: 205000 0.0000 0.0000 0.0000 0.0000 0.0000 -23408.8386 0.0000 0.0000 3787.0852 -19621.7534 1470.4845 -23408.8386 -19614.2475 1493.1671 462.4182 462.4182 125000.0000 -199.6744 -199.6744
ENERGY: 305000 0.0000 0.0000 0.0000 0.0000 0.0000 -23447.5632 0.0000 0.0000 3886.4619 -19561.1013 1509.0714 -23447.5632 -19556.8477 1496.6761 1033.7020 1033.7020 125000.0000 -18.7835 -18.7835
ENERGY: 405000 0.0000 0.0000 0.0000 0.0000 0.0000 -23452.1759 0.0000 0.0000 4105.5357 -19346.6402 1594.1354 -23452.1759 -19342.2713 1520.4559 201.5333 201.5333 125000.0000 -21.6504 -21.6504
ENERGY: 505000 0.0000 0.0000 0.0000 0.0000 0.0000 -23215.3390 0.0000 0.0000 3948.6551 -19266.6838 1533.2204 -23215.3390 -19265.8072 1498.4913 -588.0713 -588.0713 125000.0000 -312.6286 -312.6286
