Info: SIMULATION PARAMETERS:
Info: TIMESTEP               2
Info: NUMBER OF STEPS        0
Info: STEPS PER CYCLE        10
Info: PERIODIC CELL BASIS 1  17.194 0 0
Info: PERIODIC CELL BASIS 2  0 17.018 0
Info: PERIODIC CELL BASIS 3  0 0 72.2522
Info: PERIODIC CELL CENTER   0 0 0
Info: WRAPPING WATERS AROUND PERIODIC BOUNDARIES ON OUTPUT.
Info: WRAPPING ALL CLUSTERS AROUND PERIODIC BOUNDARIES ON OUTPUT.
Info: FIRST LDB TIMESTEP     50
Info: LAST LDB TIMESTEP     -1
Info: HOM BACKGROUND SCALING 1
Info: PME BACKGROUND SCALING 1
Info: MIN ATOMS PER PATCH    40
Info: VELOCITY FILE          ../equilibration/MD.restart.vel
Info: CENTER OF MASS MOVING INITIALLY? NO
Info: DIELECTRIC             1
Info: EXCLUDE                SCALED ONE-FOUR
Info: 1-4 ELECTROSTATICS SCALED BY 1
Info: MODIFIED 1-4 VDW PARAMETERS WILL BE USED
Info: DCD FILENAME           MD.dcd
Info: DCD FREQUENCY          5000
Info: DCD FIRST STEP         5000
Info: DCD FILE WILL CONTAIN UNIT CELL DATA
Info: XST FILENAME           MD.xst
Info: XST FREQUENCY          5000
Info: NO VELOCITY DCD OUTPUT
Info: NO FORCE DCD OUTPUT
Info: OUTPUT FILENAME        MD
Info: BINARY OUTPUT FILES WILL BE USED
Info: RESTART FILENAME       MD.restart
Info: RESTART FREQUENCY      50000
Info: BINARY RESTART FILES WILL BE USED
Info: SWITCHING ACTIVE
Info: SWITCHING ON           10
Info: SWITCHING OFF          12
Info: PAIRLIST DISTANCE      14
Info: PAIRLIST SHRINK RATE   0.01
Info: PAIRLIST GROW RATE     0.01
Info: PAIRLIST TRIGGER       0.3
Info: PAIRLISTS PER CYCLE    2
Info: PAIRLISTS ENABLED
Info: MARGIN                 0
Info: HYDROGEN GROUP CUTOFF  2.5
Info: PATCH DIMENSION        16.5
Info: ENERGY OUTPUT STEPS    5000
Info: CROSSTERM ENERGY INCLUDED IN DIHEDRAL
Info: TIMING OUTPUT STEPS    50000
Info: PRESSURE OUTPUT STEPS  5000
Info: FIXED ATOMS ACTIVE
Info: TCL GLOBAL FORCES ACTIVE
Info: TCL GLOBAL FORCES SCRIPT INLINED IN CONFIG FILE
Info: LANGEVIN DYNAMICS ACTIVE
Info: LANGEVIN TEMPERATURE   300
Info: LANGEVIN USING BBK INTEGRATOR
Info: LANGEVIN DAMPING COEFFICIENT IS 1 INVERSE PS
Info: LANGEVIN DYNAMICS NOT APPLIED TO HYDROGENS
Info: PARTICLE MESH EWALD (PME) ACTIVE
Info: PME TOLERANCE               1e-06
Info: PME EWALD COEFFICIENT       0.257952
Info: PME INTERPOLATION ORDER     4
Info: PME GRID DIMENSIONS         18 18 80
Info: PME MAXIMUM GRID SPACING    1
Info: FULL ELECTROSTATIC EVALUATION FREQUENCY      2
Info: USING VERLET I (r-RESPA) MTS SCHEME.
Info: C1 SPLITTING OF LONG RANGE ELECTROSTATICS
Info: PLACING ATOMS IN PATCHES BY HYDROGEN GROUPS
Info: RIGID BONDS TO HYDROGEN : ALL
Info:         ERROR TOLERANCE : 1e-08
Info:          MAX ITERATIONS : 100
Info: RIGID WATER USING SETTLE ALGORITHM
Info: RANDOM NUMBER SEED     1683730280
Info: USE HYDROGEN BONDS?    NO
Info: COORDINATE PDB         ../input/system.pdb
Info: STRUCTURE FILE         ../input/system.psf
Info: PARAMETER file: CHARMM format!
Info: PARAMETERS             ../input/par_water.inp
Info: PARAMETERS             ../input/par_nanotubes.inp
Info: USING ARITHMETIC MEAN TO COMBINE L-J SIGMA PARAMETERS
Info: BINARY COORDINATES     ../equilibration/MD.restart.coor
Info: SUMMARY OF PARAMETERS:
Info: 3 BONDS
Info: 2 ANGLES
Info: 1 DIHEDRAL
Info: 0 IMPROPER
Info: 0 CROSSTERM
Info: 3 VDW
Info: 0 VDW_PAIRS
Info: 0 NBTHOLE_PAIRS
Info: STRUCTURE SUMMARY:
Info: 1866 ATOMS
Info: 1412 BONDS
Info: 1118 ANGLES
Info: 1004 DIHEDRALS
Info: 0 IMPROPERS
Info: 0 CROSSTERMS
Info: 0 EXCLUSIONS
Info: 276 FIXED ATOMS
Info: 1590 RIGID BONDS
Info: 0 RIGID BONDS BETWEEN FIXED ATOMS
Info: 3180 DEGREES OF FREEDOM
Info: 806 HYDROGEN GROUPS
Info: 3 ATOMS IN LARGEST HYDROGEN GROUP
Info: 806 MIGRATION GROUPS
Info: 3 ATOMS IN LARGEST MIGRATION GROUP
Info: 276 HYDROGEN GROUPS WITH ALL ATOMS FIXED
Info: TOTAL MASS = 12863 amu
Info: TOTAL CHARGE = 0 e
Info: MASS DENSITY = 1.01033 g/cm^3
Info: ATOM DENSITY = 0.0882623 atoms/A^3
Info: ADDED 3306 IMPLICIT EXCLUSIONS
Info: NONBONDED TABLE R-SQUARED SPACING: 0.0625
Info: NONBONDED TABLE SIZE: 769 POINTS
Info: REMOVING COM VELOCITY -0.0456868 0.0499809 -0.136499
Info: Updated CUDA force table with 4096 elements.
Info: Updated CUDA LJ table with 3 x 3 elements.
Info: Found 4 unique exclusion lists needing 4 bytes
TCL: Running for 500000 steps
ETITLE: TS BOND ANGLE DIHED IMPRP ELECT VDW BOUNDARY MISC KINETIC TOTAL TEMP POTENTIAL TOTAL3 TEMPAVG PRESSURE GPRESSURE VOLUME PRESSAVG GPRESSAVG
ENERGY: 0 0.0000 0.0000 0.0000 0.0000 -5634.9476 450.7957 0.0000 0.0000 958.1990 -4225.9530 303.2627 -5184.1519 -4224.1341 303.2627 -827.1772 -796.7026 21141.5399 -827.1772 -796.7026
ENERGY: 100000 0.0000 0.0000 0.0000 0.0000 -5729.1385 529.1518 0.0000 0.0000 912.0389 -4287.9477 288.6534 -5199.9866 -4285.7092 294.3798 2025.4220 2045.2875 21141.5399 1471.7775 1471.6840
ENERGY: 200000 0.0000 0.0000 0.0000 0.0000 -5791.6846 587.2209 0.0000 0.0000 926.7937 -4277.6700 293.3231 -5204.4636 -4275.3312 296.0076 3223.0570 3274.4095 21141.5399 2663.1358 2663.1106
ENERGY: 300000 0.0000 0.0000 0.0000 0.0000 -5774.4312 542.0844 0.0000 0.0000 953.6311 -4278.7157 301.8170 -5232.3468 -4276.6073 301.1139 2415.6556 2447.6254 21141.5399 2665.5686 2665.4359
ENERGY: 400000 0.0000 0.0000 0.0000 0.0000 -5822.9369 574.5678 0.0000 0.0000 979.7440 -4268.6250 310.0815 -5248.3690 -4266.7998 299.4679 3343.9741 3356.9682 21141.5399 3002.6781 3002.6661
ENERGY: 500000 0.0000 0.0000 0.0000 0.0000 -5796.8548 566.0368 0.0000 0.0000 939.5026 -4291.3154 297.3454 -5230.8180 -4289.3185 297.8975 2991.4163 3013.0571 21141.5399 2796.0288 2796.0679
