Info: SIMULATION PARAMETERS:
Info: TIMESTEP               2
Info: NUMBER OF STEPS        0
Info: STEPS PER CYCLE        10
Info: PERIODIC CELL BASIS 1  50 0 0
Info: PERIODIC CELL BASIS 2  0 50 0
Info: PERIODIC CELL BASIS 3  0 0 50
Info: PERIODIC CELL CENTER   0 0 0
Info: WRAPPING WATERS AROUND PERIODIC BOUNDARIES ON OUTPUT.
Info: WRAPPING ALL CLUSTERS AROUND PERIODIC BOUNDARIES ON OUTPUT.
Info: FIRST LDB TIMESTEP     50
Info: LAST LDB TIMESTEP     -1
Info: HOM BACKGROUND SCALING 1
Info: PME BACKGROUND SCALING 1
Info: MIN ATOMS PER PATCH    40
Info: INITIAL TEMPERATURE    300
Info: CENTER OF MASS MOVING INITIALLY? NO
Info: REMOVING CENTER OF MASS DRIFT DURING SIMULATION
Info: DIELECTRIC             1
Info: EXCLUDE                SCALED ONE-FOUR
Info: 1-4 ELECTROSTATICS SCALED BY 1
Info: MODIFIED 1-4 VDW PARAMETERS WILL BE USED
Info: DCD FILENAME           MD300K.dcd
Info: DCD FREQUENCY          500
Info: DCD FIRST STEP         500
Info: DCD FILE WILL CONTAIN UNIT CELL DATA
Info: XST FILENAME           MD300K.xst
Info: XST FREQUENCY          500
Info: NO VELOCITY DCD OUTPUT
Info: NO FORCE DCD OUTPUT
Info: OUTPUT FILENAME        MD300K
Info: BINARY OUTPUT FILES WILL BE USED
Info: RESTART FILENAME       MD300K.restart
Info: RESTART FREQUENCY      5000
Info: BINARY RESTART FILES WILL BE USED
Info: SWITCHING ACTIVE
Info: SWITCHING ON           10
Info: SWITCHING OFF          12
Info: PAIRLIST DISTANCE      14
Info: PAIRLIST SHRINK RATE   0.01
Info: PAIRLIST GROW RATE     0.01
Info: PAIRLIST TRIGGER       0.3
Info: PAIRLISTS PER CYCLE    2
Info: PAIRLISTS ENABLED
Info: MARGIN                 0
Info: HYDROGEN GROUP CUTOFF  2.5
Info: PATCH DIMENSION        16.5
Info: ENERGY OUTPUT STEPS    500
Info: CROSSTERM ENERGY INCLUDED IN DIHEDRAL
Info: TIMING OUTPUT STEPS    5000
Info: PRESSURE OUTPUT STEPS  500
Info: LANGEVIN DYNAMICS ACTIVE
Info: LANGEVIN TEMPERATURE   300
Info: LANGEVIN USING BBK INTEGRATOR
Info: LANGEVIN DAMPING COEFFICIENT IS 1 INVERSE PS
Info: LANGEVIN DYNAMICS NOT APPLIED TO HYDROGENS
Info: PARTICLE MESH EWALD (PME) ACTIVE
Info: PME TOLERANCE               1e-06
Info: PME EWALD COEFFICIENT       0.257952
Info: PME INTERPOLATION ORDER     4
Info: PME GRID DIMENSIONS         54 54 54
Info: PME MAXIMUM GRID SPACING    1
Info: FULL ELECTROSTATIC EVALUATION FREQUENCY      2
Info: USING VERLET I (r-RESPA) MTS SCHEME.
Info: C1 SPLITTING OF LONG RANGE ELECTROSTATICS
Info: PLACING ATOMS IN PATCHES BY HYDROGEN GROUPS
Info: RIGID BONDS TO HYDROGEN : ALL
Info:         ERROR TOLERANCE : 1e-08
Info:          MAX ITERATIONS : 100
Info: RIGID WATER USING SETTLE ALGORITHM
Info: RANDOM NUMBER SEED     1714123412
Info: USE HYDROGEN BONDS?    NO
Info: COORDINATE PDB         ../input/initial_positions.pdb
Info: STRUCTURE FILE         ../input/Au.psf
Info: PARAMETER file: CHARMM format!
Info: PARAMETERS             ../input/FF_gold.inp
Info: USING ARITHMETIC MEAN TO COMBINE L-J SIGMA PARAMETERS
Info: SUMMARY OF PARAMETERS:
Info: 0 BONDS
Info: 0 ANGLES
Info: 0 DIHEDRAL
Info: 0 IMPROPER
Info: 0 CROSSTERM
Info: 1 VDW
Info: 0 VDW_PAIRS
Info: 0 NBTHOLE_PAIRS
Info: STRUCTURE SUMMARY:
Info: 864 ATOMS
Info: 0 BONDS
Info: 0 ANGLES
Info: 0 DIHEDRALS
Info: 0 IMPROPERS
Info: 0 CROSSTERMS
Info: 0 EXCLUSIONS
Info: 0 RIGID BONDS
Info: 2592 DEGREES OF FREEDOM
Info: 864 HYDROGEN GROUPS
Info: 1 ATOMS IN LARGEST HYDROGEN GROUP
Info: 864 MIGRATION GROUPS
Info: 1 ATOMS IN LARGEST MIGRATION GROUP
Info: TOTAL MASS = 170179 amu
Info: TOTAL CHARGE = 0 e
Info: MASS DENSITY = 2.26077 g/cm^3
Info: ATOM DENSITY = 0.006912 atoms/A^3
Info: ADDED 0 IMPLICIT EXCLUSIONS
Info: NONBONDED TABLE R-SQUARED SPACING: 0.0625
Info: NONBONDED TABLE SIZE: 769 POINTS
Info: REMOVING COM VELOCITY 0.0101772 0.00879204 -0.0177533
Info: Updated CUDA force table with 4096 elements.
Info: Updated CUDA LJ table with 1 x 1 elements.
Info: Found 1 unique exclusion lists needing 4 bytes
TCL: Running for 500000 steps
ETITLE: TS BOND ANGLE DIHED IMPRP ELECT VDW BOUNDARY MISC KINETIC TOTAL TEMP POTENTIAL TOTAL3 TEMPAVG PRESSURE GPRESSURE VOLUME PRESSAVG GPRESSAVG
ENERGY: 0 0.0000 0.0000 0.0000 0.0000 0.0000 -31150.7773 0.0000 0.0000 794.9968 -30355.7806 308.6887 -31150.7773 -30355.7806 308.6887 292.3396 292.3396 125000.0000 292.3396 292.3396
ENERGY: 100000 0.0000 0.0000 0.0000 0.0000 0.0000 -30325.6988 0.0000 0.0000 805.7922 -29519.9066 312.8805 -30325.6988 -29519.3733 307.8540 143.3240 143.3240 125000.0000 -82.1754 -82.1754
ENERGY: 200000 0.0000 0.0000 0.0000 0.0000 0.0000 -30318.3926 0.0000 0.0000 800.3257 -29518.0668 310.7579 -30318.3926 -29520.4583 297.2011 294.9963 294.9963 125000.0000 41.1616 41.1616
ENERGY: 300000 0.0000 0.0000 0.0000 0.0000 0.0000 -30317.1592 0.0000 0.0000 791.8928 -29525.2664 307.4835 -30317.1592 -29525.2411 306.9398 -141.4381 -141.4381 125000.0000 -221.5765 -221.5765
ENERGY: 400000 0.0000 0.0000 0.0000 0.0000 0.0000 -30373.6439 0.0000 0.0000 783.9726 -29589.6712 304.4082 -30373.6439 -29589.7514 304.0387 -122.4953 -122.4953 125000.0000 -41.4043 -41.4043
ENERGY: 500000 0.0000 0.0000 0.0000 0.0000 0.0000 -30295.4721 0.0000 0.0000 746.0102 -29549.4619 289.6678 -30295.4721 -29548.9357 301.5832 163.1098 163.1098 125000.0000 -104.3339 -104.3339
