Info: SIMULATION PARAMETERS:
Info: TIMESTEP               2
Info: NUMBER OF STEPS        0
Info: STEPS PER CYCLE        10
Info: PERIODIC CELL BASIS 1  17.194 0 0
Info: PERIODIC CELL BASIS 2  0 17.018 0
Info: PERIODIC CELL BASIS 3  0 0 80
Info: PERIODIC CELL CENTER   0 0 0
Info: WRAPPING WATERS AROUND PERIODIC BOUNDARIES ON OUTPUT.
Info: WRAPPING ALL CLUSTERS AROUND PERIODIC BOUNDARIES ON OUTPUT.
Info: FIRST LDB TIMESTEP     50
Info: LAST LDB TIMESTEP     -1
Info: HOM BACKGROUND SCALING 1
Info: PME BACKGROUND SCALING 1
Info: MIN ATOMS PER PATCH    40
Info: INITIAL TEMPERATURE    300
Info: CENTER OF MASS MOVING INITIALLY? NO
Info: DIELECTRIC             1
Info: EXCLUDE                SCALED ONE-FOUR
Info: 1-4 ELECTROSTATICS SCALED BY 1
Info: MODIFIED 1-4 VDW PARAMETERS WILL BE USED
Info: DCD FILENAME           MD.dcd
Info: DCD FREQUENCY          500
Info: DCD FIRST STEP         500
Info: DCD FILE WILL CONTAIN UNIT CELL DATA
Info: XST FILENAME           MD.xst
Info: XST FREQUENCY          500
Info: NO VELOCITY DCD OUTPUT
Info: NO FORCE DCD OUTPUT
Info: OUTPUT FILENAME        MD
Info: BINARY OUTPUT FILES WILL BE USED
Info: RESTART FILENAME       MD.restart
Info: RESTART FREQUENCY      5000
Info: BINARY RESTART FILES WILL BE USED
Info: SWITCHING ACTIVE
Info: SWITCHING ON           10
Info: SWITCHING OFF          12
Info: PAIRLIST DISTANCE      14
Info: PAIRLIST SHRINK RATE   0.01
Info: PAIRLIST GROW RATE     0.01
Info: PAIRLIST TRIGGER       0.3
Info: PAIRLISTS PER CYCLE    2
Info: PAIRLISTS ENABLED
Info: MARGIN                 0.99
Info: HYDROGEN GROUP CUTOFF  2.5
Info: PATCH DIMENSION        17.49
Info: ENERGY OUTPUT STEPS    500
Info: CROSSTERM ENERGY INCLUDED IN DIHEDRAL
Info: TIMING OUTPUT STEPS    5000
Info: PRESSURE OUTPUT STEPS  500
Info: FIXED ATOMS ACTIVE
Info: LANGEVIN DYNAMICS ACTIVE
Info: LANGEVIN TEMPERATURE   300
Info: LANGEVIN USING BBK INTEGRATOR
Info: LANGEVIN DAMPING COEFFICIENT IS 1 INVERSE PS
Info: LANGEVIN DYNAMICS NOT APPLIED TO HYDROGENS
Info: LANGEVIN PISTON PRESSURE CONTROL ACTIVE
Info:        TARGET PRESSURE IS 1.01325 BAR
Info:     OSCILLATION PERIOD IS 200 FS
Info:             DECAY TIME IS 100 FS
Info:     PISTON TEMPERATURE IS 300 K
Info:       PRESSURE CONTROL IS GROUP-BASED
Info:    INITIAL STRAIN RATE IS 0 0 0
Info:       CELL FLUCTUATION IS ANISOTROPIC
Info:     CONSTANT AREA PRESSURE CONTROL ACTIVE
Info: PARTICLE MESH EWALD (PME) ACTIVE
Info: PME TOLERANCE               1e-06
Info: PME EWALD COEFFICIENT       0.257952
Info: PME INTERPOLATION ORDER     4
Info: PME GRID DIMENSIONS         18 18 80
Info: PME MAXIMUM GRID SPACING    1
Info: FULL ELECTROSTATIC EVALUATION FREQUENCY      2
Info: USING VERLET I (r-RESPA) MTS SCHEME.
Info: C1 SPLITTING OF LONG RANGE ELECTROSTATICS
Info: PLACING ATOMS IN PATCHES BY HYDROGEN GROUPS
Info: RIGID BONDS TO HYDROGEN : ALL
Info:         ERROR TOLERANCE : 1e-08
Info:          MAX ITERATIONS : 100
Info: RIGID WATER USING SETTLE ALGORITHM
Info: RANDOM NUMBER SEED     1683728501
Info: USE HYDROGEN BONDS?    NO
Info: COORDINATE PDB         ../input/system.pdb
Info: STRUCTURE FILE         ../input/system.psf
Info: PARAMETER file: CHARMM format!
Info: PARAMETERS             ../input/par_water.inp
Info: PARAMETERS             ../input/par_nanotubes.inp
Info: USING ARITHMETIC MEAN TO COMBINE L-J SIGMA PARAMETERS
Info: SUMMARY OF PARAMETERS:
Info: 3 BONDS
Info: 2 ANGLES
Info: 1 DIHEDRAL
Info: 0 IMPROPER
Info: 0 CROSSTERM
Info: 3 VDW
Info: 0 VDW_PAIRS
Info: 0 NBTHOLE_PAIRS
Info: STRUCTURE SUMMARY:
Info: 1866 ATOMS
Info: 1412 BONDS
Info: 1118 ANGLES
Info: 1004 DIHEDRALS
Info: 0 IMPROPERS
Info: 0 CROSSTERMS
Info: 0 EXCLUSIONS
Info: 276 FIXED ATOMS
Info: 1590 RIGID BONDS
Info: 0 RIGID BONDS BETWEEN FIXED ATOMS
Info: 3180 DEGREES OF FREEDOM
Info: 806 HYDROGEN GROUPS
Info: 3 ATOMS IN LARGEST HYDROGEN GROUP
Info: 806 MIGRATION GROUPS
Info: 3 ATOMS IN LARGEST MIGRATION GROUP
Info: 276 HYDROGEN GROUPS WITH ALL ATOMS FIXED
Info: TOTAL MASS = 12863 amu
Info: TOTAL CHARGE = 0 e
Info: MASS DENSITY = 0.912486 g/cm^3
Info: ATOM DENSITY = 0.0797143 atoms/A^3
Info: ADDED 3306 IMPLICIT EXCLUSIONS
Info: NONBONDED TABLE R-SQUARED SPACING: 0.0625
Info: NONBONDED TABLE SIZE: 769 POINTS
Info: REMOVING COM VELOCITY -0.136589 -0.085614 0.247747
Info: Updated CUDA force table with 4096 elements.
Info: Updated CUDA LJ table with 3 x 3 elements.
Info: Found 4 unique exclusion lists needing 4 bytes
TCL: Minimizing for 500 steps
ETITLE: TS BOND ANGLE DIHED IMPRP ELECT VDW BOUNDARY MISC KINETIC TOTAL TEMP POTENTIAL TOTAL3 TEMPAVG PRESSURE GPRESSURE VOLUME PRESSAVG GPRESSAVG
ENERGY: 0 0.0000 0.0000 0.0000 0.0000 -4423.9530 6826.7541 0.0000 0.0000 0.0000 2402.8011 0.0000 2402.8011 2402.8011 0.0000 12209.4949 -6685.0346 23408.5994 12209.4949 -6685.0346
ENERGY: 100 0.0000 0.0000 0.0000 0.0000 -6151.1554 493.6556 0.0000 0.0000 0.0000 -5657.4998 0.0000 -5657.4998 -5657.4998 0.0000 -106.2824 -15844.5034 23408.5994 -106.2824 -15844.5034
ENERGY: 200 0.0000 0.0000 0.0000 0.0000 -6626.2677 669.3730 0.0000 0.0000 0.0000 -5956.8947 0.0000 -5956.8947 -5956.8947 0.0000 -169.8694 -17222.0285 23408.5994 -169.8694 -17222.0285
ENERGY: 300 0.0000 0.0000 0.0000 0.0000 -6796.0150 713.5940 0.0000 0.0000 0.0000 -6082.4211 0.0000 -6082.4211 -6082.4211 0.0000 -181.2012 -17729.8579 23408.5994 -181.2012 -17729.8579
ENERGY: 400 0.0000 0.0000 0.0000 0.0000 -6905.0009 743.8205 0.0000 0.0000 0.0000 -6161.1804 0.0000 -6161.1804 -6161.1804 0.0000 -186.0828 -18059.4902 23408.5994 -186.0828 -18059.4902
ENERGY: 500 0.0000 0.0000 0.0000 0.0000 -6943.9811 750.8523 0.0000 0.0000 0.0000 -6193.1288 0.0000 -6193.1288 -6193.1288 0.0000 -162.6258 -18145.0873 23408.5994 -162.6258 -18145.0873
TCL: Running for 250000 steps
ETITLE: TS BOND ANGLE DIHED IMPRP ELECT VDW BOUNDARY MISC KINETIC TOTAL TEMP POTENTIAL TOTAL3 TEMPAVG PRESSURE GPRESSURE VOLUME PRESSAVG GPRESSAVG
ENERGY: 500 0.0000 0.0000 0.0000 0.0000 -6943.9811 750.8523 0.0000 0.0000 0.0000 -6193.1288 0.0000 -6193.1288 -6193.2150 0.0000 -3541.2164 -3521.9832 23408.5994 -3541.2164 -3521.9832
ENERGY: 50500 0.0000 0.0000 0.0000 0.0000 -5657.5531 457.4395 0.0000 0.0000 949.3112 -4250.8023 300.4498 -5200.1135 -4247.7807 303.8223 -89.2514 -53.1432 20321.2533 -162.2913 -162.0241
ENERGY: 100500 0.0000 0.0000 0.0000 0.0000 -5689.6346 471.2548 0.0000 0.0000 968.5527 -4249.8271 306.5395 -5218.3798 -4248.6003 301.1011 286.0693 317.1143 20403.6758 -369.3771 -369.6803
ENERGY: 150500 0.0000 0.0000 0.0000 0.0000 -5717.9612 494.5425 0.0000 0.0000 952.0833 -4271.3354 301.3271 -5223.4187 -4269.3497 300.9865 356.6362 388.9253 20385.6095 -69.9630 -70.2436
ENERGY: 200500 0.0000 0.0000 0.0000 0.0000 -5665.9758 471.0803 0.0000 0.0000 940.5401 -4254.3554 297.6738 -5194.8955 -4252.4789 298.8231 -395.2728 -357.4298 20994.7722 -164.7941 -164.5650
ENERGY: 250500 0.0000 0.0000 0.0000 0.0000 -5711.8934 480.5328 0.0000 0.0000 974.9384 -4256.4222 308.5606 -5231.3606 -4255.0427 302.7995 9.2143 29.6764 20765.4225 -196.4522 -197.3888
