Info: SIMULATION PARAMETERS:
Info: TIMESTEP               2
Info: NUMBER OF STEPS        0
Info: STEPS PER CYCLE        10
Info: PERIODIC CELL BASIS 1  47.4222 0 0
Info: PERIODIC CELL BASIS 2  0 47.4222 0
Info: PERIODIC CELL BASIS 3  0 0 68.333
Info: PERIODIC CELL CENTER   0 0 0
Info: WRAPPING WATERS AROUND PERIODIC BOUNDARIES ON OUTPUT.
Info: WRAPPING ALL CLUSTERS AROUND PERIODIC BOUNDARIES ON OUTPUT.
Info: FIRST LDB TIMESTEP     50
Info: LAST LDB TIMESTEP     -1
Info: HOM BACKGROUND SCALING 1
Info: PME BACKGROUND SCALING 1
Info: MIN ATOMS PER PATCH    40
Info: INITIAL TEMPERATURE    323
Info: CENTER OF MASS MOVING INITIALLY? NO
Info: REMOVING CENTER OF MASS DRIFT DURING SIMULATION
Info: DIELECTRIC             1
Info: EXCLUDE                SCALED ONE-FOUR
Info: 1-4 ELECTROSTATICS SCALED BY 1
Info: MODIFIED 1-4 VDW PARAMETERS WILL BE USED
Info: DCD FILENAME           NVT.dcd
Info: DCD FREQUENCY          500
Info: DCD FIRST STEP         500
Info: DCD FILE WILL CONTAIN UNIT CELL DATA
Info: XST FILENAME           NVT.xst
Info: XST FREQUENCY          500
Info: NO VELOCITY DCD OUTPUT
Info: NO FORCE DCD OUTPUT
Info: OUTPUT FILENAME        NVT
Info: BINARY OUTPUT FILES WILL BE USED
Info: RESTART FILENAME       NVT.restart
Info: RESTART FREQUENCY      5000
Info: BINARY RESTART FILES WILL BE USED
Info: SWITCHING ACTIVE
Info: SWITCHING ON           10
Info: SWITCHING OFF          12
Info: PAIRLIST DISTANCE      14
Info: PAIRLIST SHRINK RATE   0.01
Info: PAIRLIST GROW RATE     0.01
Info: PAIRLIST TRIGGER       0.3
Info: PAIRLISTS PER CYCLE    2
Info: PAIRLISTS ENABLED
Info: MARGIN                 0
Info: HYDROGEN GROUP CUTOFF  2.5
Info: PATCH DIMENSION        16.5
Info: ENERGY OUTPUT STEPS    500
Info: CROSSTERM ENERGY INCLUDED IN DIHEDRAL
Info: TIMING OUTPUT STEPS    5000
Info: PRESSURE OUTPUT STEPS  500
Info: LANGEVIN DYNAMICS ACTIVE
Info: LANGEVIN TEMPERATURE   323
Info: LANGEVIN USING BBK INTEGRATOR
Info: LANGEVIN DAMPING COEFFICIENT IS 1 INVERSE PS
Info: LANGEVIN DYNAMICS NOT APPLIED TO HYDROGENS
Info: PARTICLE MESH EWALD (PME) ACTIVE
Info: PME TOLERANCE               1e-06
Info: PME EWALD COEFFICIENT       0.257952
Info: PME INTERPOLATION ORDER     4
Info: PME GRID DIMENSIONS         48 48 72
Info: PME MAXIMUM GRID SPACING    1
Info: FULL ELECTROSTATIC EVALUATION FREQUENCY      2
Info: USING VERLET I (r-RESPA) MTS SCHEME.
Info: C1 SPLITTING OF LONG RANGE ELECTROSTATICS
Info: PLACING ATOMS IN PATCHES BY HYDROGEN GROUPS
Info: RIGID BONDS TO HYDROGEN : ALL
Info:         ERROR TOLERANCE : 1e-08
Info:          MAX ITERATIONS : 100
Info: RIGID WATER USING SETTLE ALGORITHM
Info: RANDOM NUMBER SEED     1714133172
Info: USE HYDROGEN BONDS?    NO
Info: COORDINATE PDB         ../input/initial_coordinates.pdb
Info: STRUCTURE FILE         ../input/dppc_water.psf
Info: PARAMETER file: CHARMM format!
Info: PARAMETERS             ../input/par_all36_lipid.prm
Info: PARAMETERS             ../input/par_water_ions.inp
Info: USING ARITHMETIC MEAN TO COMBINE L-J SIGMA PARAMETERS
Info: SUMMARY OF PARAMETERS:
Info: 53 BONDS
Info: 132 ANGLES
Info: 180 DIHEDRAL
Info: 4 IMPROPER
Info: 0 CROSSTERM
Info: 44 VDW
Info: 2 VDW_PAIRS
Info: 0 NBTHOLE_PAIRS
Info: STRUCTURE SUMMARY:
Info: 15927 ATOMS
Info: 13666 BONDS
Info: 20189 ANGLES
Info: 25128 DIHEDRALS
Info: 144 IMPROPERS
Info: 0 CROSSTERMS
Info: 0 EXCLUSIONS
Info: 12327 RIGID BONDS
Info: 35454 DEGREES OF FREEDOM
Info: 5789 HYDROGEN GROUPS
Info: 4 ATOMS IN LARGEST HYDROGEN GROUP
Info: 5789 MIGRATION GROUPS
Info: 4 ATOMS IN LARGEST MIGRATION GROUP
Info: TOTAL MASS = 92285.8 amu
Info: TOTAL CHARGE = 3.75509e-06 e
Info: MASS DENSITY = 0.997242 g/cm^3
Info: ATOM DENSITY = 0.103643 atoms/A^3
Info: ADDED 58983 IMPLICIT EXCLUSIONS
Info: NONBONDED TABLE R-SQUARED SPACING: 0.0625
Info: NONBONDED TABLE SIZE: 769 POINTS
Info: REMOVING COM VELOCITY -0.148162 0.0582755 -0.0155757
Info: Updated CUDA force table with 4096 elements.
Info: Updated CUDA LJ table with 44 x 44 elements.
Info: Found 58 unique exclusion lists needing 208 bytes
TCL: Running for 500000 steps
ETITLE: TS BOND ANGLE DIHED IMPRP ELECT VDW BOUNDARY MISC KINETIC TOTAL TEMP POTENTIAL TOTAL3 TEMPAVG PRESSURE GPRESSURE VOLUME PRESSAVG GPRESSAVG
ENERGY: 0 974.2161 5894.6916 3507.1793 39.0715 -30288.6646 -1486.9413 0.0000 0.0000 11429.4757 -9930.9718 324.4527 -21360.4475 -9837.2516 324.4527 -352.5123 -347.9747 153671.6957 -352.5123 -347.9747
ENERGY: 100000 1024.9058 5888.2061 3606.0849 45.6001 -30374.7840 -1287.4009 0.0000 0.0000 11251.3949 -9845.9931 319.3975 -21097.3880 -9744.5623 321.6434 -586.8985 -568.3562 153671.6957 -171.3938 -171.3513
ENERGY: 200000 985.7032 5956.2684 3574.2583 53.1023 -30473.5413 -1269.8276 0.0000 0.0000 11211.4300 -9962.6067 318.2630 -21174.0366 -9863.6862 320.7631 -224.0552 -206.9875 153671.6957 -169.2169 -169.1650
ENERGY: 300000 1017.0298 5913.8755 3601.5770 35.1557 -30212.2776 -1354.9001 0.0000 0.0000 11506.8897 -9492.6499 326.6503 -20999.5396 -9399.9779 323.7824 -150.3992 -127.3944 153671.6957 -43.0017 -43.1479
ENERGY: 400000 1038.8836 5946.2438 3606.3285 42.0556 -30363.3013 -1305.6691 0.0000 0.0000 11374.4688 -9660.9901 322.8912 -21035.4589 -9564.1413 321.5410 -654.1778 -652.6605 153671.6957 -218.2058 -218.4430
ENERGY: 500000 1068.0270 6032.1223 3515.6144 42.8849 -30327.5729 -1371.9983 0.0000 0.0000 11225.2303 -9815.6923 318.6548 -21040.9226 -9719.1210 320.8218 -212.8599 -196.3296 153671.6957 -202.0200 -202.2859
