Info: SIMULATION PARAMETERS:
Info: TIMESTEP               2
Info: NUMBER OF STEPS        0
Info: STEPS PER CYCLE        10
Info: PERIODIC CELL BASIS 1  50 0 0
Info: PERIODIC CELL BASIS 2  0 50 0
Info: PERIODIC CELL BASIS 3  0 0 50
Info: PERIODIC CELL CENTER   0 0 0
Info: WRAPPING WATERS AROUND PERIODIC BOUNDARIES ON OUTPUT.
Info: WRAPPING ALL CLUSTERS AROUND PERIODIC BOUNDARIES ON OUTPUT.
Info: FIRST LDB TIMESTEP     50
Info: LAST LDB TIMESTEP     -1
Info: HOM BACKGROUND SCALING 1
Info: PME BACKGROUND SCALING 1
Info: MIN ATOMS PER PATCH    40
Info: INITIAL TEMPERATURE    1500
Info: CENTER OF MASS MOVING INITIALLY? NO
Info: REMOVING CENTER OF MASS DRIFT DURING SIMULATION
Info: DIELECTRIC             1
Info: EXCLUDE                SCALED ONE-FOUR
Info: 1-4 ELECTROSTATICS SCALED BY 1
Info: MODIFIED 1-4 VDW PARAMETERS WILL BE USED
Info: DCD FILENAME           MD1500K.dcd
Info: DCD FREQUENCY          500
Info: DCD FIRST STEP         500
Info: DCD FILE WILL CONTAIN UNIT CELL DATA
Info: XST FILENAME           MD1500K.xst
Info: XST FREQUENCY          500
Info: NO VELOCITY DCD OUTPUT
Info: NO FORCE DCD OUTPUT
Info: OUTPUT FILENAME        MD1500K
Info: BINARY OUTPUT FILES WILL BE USED
Info: RESTART FILENAME       MD1500K.restart
Info: RESTART FREQUENCY      5000
Info: BINARY RESTART FILES WILL BE USED
Info: SWITCHING ACTIVE
Info: SWITCHING ON           10
Info: SWITCHING OFF          12
Info: PAIRLIST DISTANCE      14
Info: PAIRLIST SHRINK RATE   0.01
Info: PAIRLIST GROW RATE     0.01
Info: PAIRLIST TRIGGER       0.3
Info: PAIRLISTS PER CYCLE    2
Info: PAIRLISTS ENABLED
Info: MARGIN                 0
Info: HYDROGEN GROUP CUTOFF  2.5
Info: PATCH DIMENSION        16.5
Info: ENERGY OUTPUT STEPS    500
Info: CROSSTERM ENERGY INCLUDED IN DIHEDRAL
Info: TIMING OUTPUT STEPS    5000
Info: PRESSURE OUTPUT STEPS  500
Info: LANGEVIN DYNAMICS ACTIVE
Info: LANGEVIN TEMPERATURE   1500
Info: LANGEVIN USING BBK INTEGRATOR
Info: LANGEVIN DAMPING COEFFICIENT IS 1 INVERSE PS
Info: LANGEVIN DYNAMICS NOT APPLIED TO HYDROGENS
Info: PARTICLE MESH EWALD (PME) ACTIVE
Info: PME TOLERANCE               1e-06
Info: PME EWALD COEFFICIENT       0.257952
Info: PME INTERPOLATION ORDER     4
Info: PME GRID DIMENSIONS         54 54 54
Info: PME MAXIMUM GRID SPACING    1
Info: FULL ELECTROSTATIC EVALUATION FREQUENCY      2
Info: USING VERLET I (r-RESPA) MTS SCHEME.
Info: C1 SPLITTING OF LONG RANGE ELECTROSTATICS
Info: PLACING ATOMS IN PATCHES BY HYDROGEN GROUPS
Info: RIGID BONDS TO HYDROGEN : ALL
Info:         ERROR TOLERANCE : 1e-08
Info:          MAX ITERATIONS : 100
Info: RIGID WATER USING SETTLE ALGORITHM
Info: RANDOM NUMBER SEED     1683722228
Info: USE HYDROGEN BONDS?    NO
Info: COORDINATE PDB         ../input/initial_positions.pdb
Info: STRUCTURE FILE         ../input/Au.psf
Info: PARAMETER file: CHARMM format!
Info: PARAMETERS             ../input/FF_gold.inp
Info: USING ARITHMETIC MEAN TO COMBINE L-J SIGMA PARAMETERS
Info: SUMMARY OF PARAMETERS:
Info: 0 BONDS
Info: 0 ANGLES
Info: 0 DIHEDRAL
Info: 0 IMPROPER
Info: 0 CROSSTERM
Info: 1 VDW
Info: 0 VDW_PAIRS
Info: 0 NBTHOLE_PAIRS
Info: STRUCTURE SUMMARY:
Info: 864 ATOMS
Info: 0 BONDS
Info: 0 ANGLES
Info: 0 DIHEDRALS
Info: 0 IMPROPERS
Info: 0 CROSSTERMS
Info: 0 EXCLUSIONS
Info: 0 RIGID BONDS
Info: 2592 DEGREES OF FREEDOM
Info: 864 HYDROGEN GROUPS
Info: 1 ATOMS IN LARGEST HYDROGEN GROUP
Info: 864 MIGRATION GROUPS
Info: 1 ATOMS IN LARGEST MIGRATION GROUP
Info: TOTAL MASS = 170179 amu
Info: TOTAL CHARGE = 0 e
Info: MASS DENSITY = 2.26077 g/cm^3
Info: ATOM DENSITY = 0.006912 atoms/A^3
Info: ADDED 0 IMPLICIT EXCLUSIONS
Info: NONBONDED TABLE R-SQUARED SPACING: 0.0625
Info: NONBONDED TABLE SIZE: 769 POINTS
Info: REMOVING COM VELOCITY 0.0259398 -0.00129216 0.0620512
Info: Updated CUDA force table with 4096 elements.
Info: Updated CUDA LJ table with 1 x 1 elements.
Info: Found 1 unique exclusion lists needing 4 bytes
TCL: Minimizing for 5000 steps
ETITLE: TS BOND ANGLE DIHED IMPRP ELECT VDW BOUNDARY MISC KINETIC TOTAL TEMP POTENTIAL TOTAL3 TEMPAVG PRESSURE GPRESSURE VOLUME PRESSAVG GPRESSAVG
ENERGY: 0 0.0000 0.0000 0.0000 0.0000 0.0000 -30468.6551 0.0000 0.0000 0.0000 -30468.6551 0.0000 -30468.6551 -30468.6551 0.0000 0.0000 -0.0000 125000.0000 0.0000 -0.0000
ENERGY: 1000 0.0000 0.0000 0.0000 0.0000 0.0000 -30929.4427 0.0000 0.0000 0.0000 -30929.4427 0.0000 -30929.4427 -30929.4427 0.0000 0.0000 -0.0000 125000.0000 0.0000 -0.0000
ENERGY: 2000 0.0000 0.0000 0.0000 0.0000 0.0000 -30929.4413 0.0000 0.0000 0.0000 -30929.4413 0.0000 -30929.4413 -30929.4413 0.0000 0.0000 -0.0000 125000.0000 0.0000 -0.0000
ENERGY: 3000 0.0000 0.0000 0.0000 0.0000 0.0000 -30929.4419 0.0000 0.0000 0.0000 -30929.4419 0.0000 -30929.4419 -30929.4419 0.0000 0.0000 -0.0000 125000.0000 0.0000 -0.0000
ENERGY: 4000 0.0000 0.0000 0.0000 0.0000 0.0000 -30929.4412 0.0000 0.0000 0.0000 -30929.4412 0.0000 -30929.4412 -30929.4412 0.0000 0.0000 -0.0000 125000.0000 0.0000 -0.0000
ENERGY: 5000 0.0000 0.0000 0.0000 0.0000 0.0000 -31150.8072 0.0000 0.0000 0.0000 -31150.8072 0.0000 -31150.8072 -31150.8072 0.0000 0.0000 0.0000 125000.0000 0.0000 0.0000
TCL: Running for 500000 steps
ETITLE: TS BOND ANGLE DIHED IMPRP ELECT VDW BOUNDARY MISC KINETIC TOTAL TEMP POTENTIAL TOTAL3 TEMPAVG PRESSURE GPRESSURE VOLUME PRESSAVG GPRESSAVG
ENERGY: 5000 0.0000 0.0000 0.0000 0.0000 0.0000 -31150.8072 0.0000 0.0000 0.0000 -31150.8072 0.0000 -31150.8072 -31150.8072 0.0000 -2.4739 -2.4739 125000.0000 -2.4739 -2.4739
ENERGY: 105000 0.0000 0.0000 0.0000 0.0000 0.0000 -23335.7222 0.0000 0.0000 3850.4102 -19485.3121 1495.0729 -23335.7222 -19489.7828 1516.3430 114.8012 114.8012 125000.0000 158.6410 158.6410
ENERGY: 205000 0.0000 0.0000 0.0000 0.0000 0.0000 -23559.9630 0.0000 0.0000 3893.7286 -19666.2344 1511.8930 -23559.9630 -19662.0255 1499.4809 -654.6308 -654.6308 125000.0000 -37.1145 -37.1145
ENERGY: 305000 0.0000 0.0000 0.0000 0.0000 0.0000 -23621.4986 0.0000 0.0000 3948.8315 -19672.6670 1533.2889 -23621.4986 -19672.3524 1490.5620 -342.0356 -342.0356 125000.0000 369.8779 369.8779
ENERGY: 405000 0.0000 0.0000 0.0000 0.0000 0.0000 -23198.2039 0.0000 0.0000 4122.4557 -19075.7483 1600.7053 -23198.2039 -19075.7256 1571.9114 -154.7359 -154.7359 125000.0000 17.8385 17.8385
ENERGY: 505000 0.0000 0.0000 0.0000 0.0000 0.0000 -23174.4785 0.0000 0.0000 3811.6173 -19362.8613 1480.0101 -23174.4785 -19356.4412 1500.0718 51.9905 51.9905 125000.0000 -98.2918 -98.2918
