Info: SIMULATION PARAMETERS:
Info: TIMESTEP               2
Info: NUMBER OF STEPS        0
Info: STEPS PER CYCLE        10
Info: PERIODIC CELL BASIS 1  47.4222 0 0
Info: PERIODIC CELL BASIS 2  0 47.4222 0
Info: PERIODIC CELL BASIS 3  0 0 68.333
Info: PERIODIC CELL CENTER   0 0 0
Info: WRAPPING WATERS AROUND PERIODIC BOUNDARIES ON OUTPUT.
Info: WRAPPING ALL CLUSTERS AROUND PERIODIC BOUNDARIES ON OUTPUT.
Info: FIRST LDB TIMESTEP     50
Info: LAST LDB TIMESTEP     -1
Info: HOM BACKGROUND SCALING 1
Info: PME BACKGROUND SCALING 1
Info: MIN ATOMS PER PATCH    40
Info: INITIAL TEMPERATURE    323
Info: CENTER OF MASS MOVING INITIALLY? NO
Info: REMOVING CENTER OF MASS DRIFT DURING SIMULATION
Info: DIELECTRIC             1
Info: EXCLUDE                SCALED ONE-FOUR
Info: 1-4 ELECTROSTATICS SCALED BY 1
Info: MODIFIED 1-4 VDW PARAMETERS WILL BE USED
Info: DCD FILENAME           NpT.dcd
Info: DCD FREQUENCY          5000
Info: DCD FIRST STEP         5000
Info: DCD FILE WILL CONTAIN UNIT CELL DATA
Info: XST FILENAME           NpT.xst
Info: XST FREQUENCY          5000
Info: NO VELOCITY DCD OUTPUT
Info: NO FORCE DCD OUTPUT
Info: OUTPUT FILENAME        NpT
Info: BINARY OUTPUT FILES WILL BE USED
Info: RESTART FILENAME       NpT.restart
Info: RESTART FREQUENCY      50000
Info: BINARY RESTART FILES WILL BE USED
Info: SWITCHING ACTIVE
Info: SWITCHING ON           10
Info: SWITCHING OFF          12
Info: PAIRLIST DISTANCE      14
Info: PAIRLIST SHRINK RATE   0.01
Info: PAIRLIST GROW RATE     0.01
Info: PAIRLIST TRIGGER       0.3
Info: PAIRLISTS PER CYCLE    2
Info: PAIRLISTS ENABLED
Info: MARGIN                 0.495
Info: HYDROGEN GROUP CUTOFF  2.5
Info: PATCH DIMENSION        16.995
Info: ENERGY OUTPUT STEPS    5000
Info: CROSSTERM ENERGY INCLUDED IN DIHEDRAL
Info: TIMING OUTPUT STEPS    50000
Info: PRESSURE OUTPUT STEPS  5000
Info: LANGEVIN DYNAMICS ACTIVE
Info: LANGEVIN TEMPERATURE   323
Info: LANGEVIN USING BBK INTEGRATOR
Info: LANGEVIN DAMPING COEFFICIENT IS 1 INVERSE PS
Info: LANGEVIN DYNAMICS NOT APPLIED TO HYDROGENS
Info: LANGEVIN PISTON PRESSURE CONTROL ACTIVE
Info:        TARGET PRESSURE IS 1.01325 BAR
Info:     OSCILLATION PERIOD IS 200 FS
Info:             DECAY TIME IS 100 FS
Info:     PISTON TEMPERATURE IS 323 K
Info:       PRESSURE CONTROL IS GROUP-BASED
Info:    INITIAL STRAIN RATE IS 0 0 0
Info:       CELL FLUCTUATION IS ISOTROPIC
Info: PARTICLE MESH EWALD (PME) ACTIVE
Info: PME TOLERANCE               1e-06
Info: PME EWALD COEFFICIENT       0.257952
Info: PME INTERPOLATION ORDER     4
Info: PME GRID DIMENSIONS         48 48 72
Info: PME MAXIMUM GRID SPACING    1
Info: FULL ELECTROSTATIC EVALUATION FREQUENCY      2
Info: USING VERLET I (r-RESPA) MTS SCHEME.
Info: C1 SPLITTING OF LONG RANGE ELECTROSTATICS
Info: PLACING ATOMS IN PATCHES BY HYDROGEN GROUPS
Info: RIGID BONDS TO HYDROGEN : ALL
Info:         ERROR TOLERANCE : 1e-08
Info:          MAX ITERATIONS : 100
Info: RIGID WATER USING SETTLE ALGORITHM
Info: RANDOM NUMBER SEED     1714131596
Info: USE HYDROGEN BONDS?    NO
Info: COORDINATE PDB         ../input/initial_coordinates.pdb
Info: STRUCTURE FILE         ../input/dppc_water.psf
Info: PARAMETER file: CHARMM format!
Info: PARAMETERS             ../input/par_all36_lipid.prm
Info: PARAMETERS             ../input/par_water_ions.inp
Info: USING ARITHMETIC MEAN TO COMBINE L-J SIGMA PARAMETERS
Info: SUMMARY OF PARAMETERS:
Info: 53 BONDS
Info: 132 ANGLES
Info: 180 DIHEDRAL
Info: 4 IMPROPER
Info: 0 CROSSTERM
Info: 44 VDW
Info: 2 VDW_PAIRS
Info: 0 NBTHOLE_PAIRS
Info: STRUCTURE SUMMARY:
Info: 15927 ATOMS
Info: 13666 BONDS
Info: 20189 ANGLES
Info: 25128 DIHEDRALS
Info: 144 IMPROPERS
Info: 0 CROSSTERMS
Info: 0 EXCLUSIONS
Info: 12327 RIGID BONDS
Info: 35454 DEGREES OF FREEDOM
Info: 5789 HYDROGEN GROUPS
Info: 4 ATOMS IN LARGEST HYDROGEN GROUP
Info: 5789 MIGRATION GROUPS
Info: 4 ATOMS IN LARGEST MIGRATION GROUP
Info: TOTAL MASS = 92285.8 amu
Info: TOTAL CHARGE = 3.75509e-06 e
Info: MASS DENSITY = 0.997242 g/cm^3
Info: ATOM DENSITY = 0.103643 atoms/A^3
Info: ADDED 58983 IMPLICIT EXCLUSIONS
Info: NONBONDED TABLE R-SQUARED SPACING: 0.0625
Info: NONBONDED TABLE SIZE: 769 POINTS
Info: REMOVING COM VELOCITY 0.0340135 0.00645913 0.0175234
Info: Updated CUDA force table with 4096 elements.
Info: Updated CUDA LJ table with 44 x 44 elements.
Info: Found 58 unique exclusion lists needing 208 bytes
TCL: Running for 500000 steps
ETITLE: TS BOND ANGLE DIHED IMPRP ELECT VDW BOUNDARY MISC KINETIC TOTAL TEMP POTENTIAL TOTAL3 TEMPAVG PRESSURE GPRESSURE VOLUME PRESSAVG GPRESSAVG
ENERGY: 0 974.2161 5894.6916 3507.1793 39.0715 -30288.6646 -1486.9413 0.0000 0.0000 11325.9601 -10034.4874 321.5142 -21360.4475 -9940.7600 321.5142 -382.9829 -377.3536 153671.6957 -382.9829 -377.3536
ENERGY: 100000 1076.3626 6125.9123 3534.9076 49.7345 -30406.1500 -1359.6422 0.0000 0.0000 11284.1522 -9694.7229 320.3274 -20978.8751 -9606.1753 323.4194 226.6532 236.8346 152629.2983 1.6969 1.6620
ENERGY: 200000 1052.5668 5988.2083 3581.9260 44.6817 -30370.1432 -1424.6509 0.0000 0.0000 11398.8545 -9728.5569 323.5835 -21127.4114 -9635.5577 322.4482 -449.7160 -442.3028 152143.5972 1.0042 0.9996
ENERGY: 300000 1042.7832 5934.0117 3594.1125 39.2142 -30173.6779 -1450.9146 0.0000 0.0000 11415.9783 -9598.4927 324.0696 -21014.4709 -9500.1176 321.6072 -571.8090 -552.1454 153180.8293 -2.7130 -2.6680
ENERGY: 400000 1010.8810 6065.7974 3553.4994 42.2270 -30667.8272 -1258.2833 0.0000 0.0000 11289.7005 -9964.0052 320.4849 -21253.7057 -9876.2655 322.4333 183.2364 198.0981 150893.8014 -1.1382 -1.0482
ENERGY: 500000 1032.4333 5942.7609 3584.2679 56.2842 -30467.4091 -1393.3353 0.0000 0.0000 11224.3909 -10020.6073 318.6309 -21244.9982 -9929.2580 321.2721 -639.1600 -636.9637 152564.0497 0.3108 0.3704
